ACTDIMS
ACTPARAM
AITS
AITSOFF
ALKALINE
API
AQUDIMS
AUTOREF
BIGMODEL
BLACKOIL
BPARA
BPIDIMS
BRINE
CART
CBMOPTS
CO2SOL
CO2STORE
COAL
COLUMNS
COMPS
CPR
DEBUG
DIFFUSE
DIMENS
DISGAS
DISGASW
DISPDIMS
DUALPERM
DUALPORO
DYNRDIMS
ECHO
ECLMC
END
ENDINC
ENDSCALE
ENDSKIP
EOS
EQLDIMS
EQLOPTS
EXTRAPMS
FAULTDIM
FIELD
FMTHMD
FMTIN
FMTOUT
FOAM
FORMFEED
FRICTION
FULLIMP
GAS
GASFIELD
GASWAT
GDIMS
GIMODEL
GRAVDR
GRAVDRB
GRAVDRM
GRIDOPTS
H2SOL
H2STORE
HMDIMS
HYST
IMPES
IMPLICIT
INCLUDE
INSPEC
LAB
LGR
LGRCOPY
LICENSES
LIVEOIL
LOAD
LOWSALT
MEMORY
MESSAGE
MESSAGES
MESSSRVC
METRIC
MICP
MINNPCOL
MISCIBLE
MONITOR
MSGFILE
MULT
MULTOUT
MULTOUTS
MULTREAL
NETWORK
NINEPOIN
NMATRIX
NNEWTF
NOCASC
NODPPM
NOECHO
NOHYST
NOINSPEC
NOMONITO
NONNC
NORSSPEC
NOSIM
NOWARN
NRSOUT
NSTACK
NUMRES
NUPCOL
OIL
OPTIONS
PARALLEL
PARTTRAC
PATHS
PEDIMS
PETOPTS
PIMTDIMS
PINTDIMS
POLYMER
POLYMW
PRECSALT
PSTEADY
RADIAL
REGDIMS
RIVRDIMS
ROCKCOMP
RPTCPL
RPTHMD
RPTRUNSP
RSSPEC
RUNSPEC
SAMG
SATOPTS
SAVE
SCDPDIMS
SKIP
SKIP100
SKIP300
SMRYDIMS
SOLVDIMS
SOLVENT
SPIDER
START
SURFACT
SURFACTW
TABDIMS
TEMP
THERMAL
TITLE
TRACERS
TRPLPORO
UDADIMS
UDPARAM
UDQDIMS
UDTDIMS
UNCODHMD
UNIFIN
UNIFOUT
UNIFOUTS
UNIFSAVE
VAPOIL
VAPWAT
VE
VFPIDIMS
VFPPDIMS
VISAGE
VISCD
WARN
WATER
WELLDIMS
WPOTCALC
WSEGDIMS
